[General]
network = OpsNetD



# cmdenv settings
cmdenv-express-mode = false

cmdenv-event-banners = false
**.cmdenv-log-level = info
cmdenv-log-prefix = %l
cmdenv-output-file = ${resultdir}/${runid}-log2.txt
cmdenv-redirect-output = true



# event logging
record-eventlog = false
eventlog-file = ${resultdir}/${runid}-log1.txt



# simulation control parameters
# simtime-resolution = s (default ps)
#sim-time-limit = 2071530s
#7days 604800
sim-time-limit =345600s

repeat = 1



# RNG initialization
num-rngs = 4
seed-0-mt = 128
seed-1-mt = 128
seed-2-mt = 128
seed-3-mt = 128



# statistic collection
**.vector-recording = false
**.scalar-recording = false
**.statistic-recording = false



# network parameters
**.numNodes = 500

#17500  : 35 s
#7500 : 15 s
#300000: 10 minute

# application layer (promote)
#**.notificationGenDistribution = 1 # constant generations every notificationGenInterval interval
#**.promote.notificationGenStartMaxTime = 3600s
#**.promote.notificationGenInterval = 7200s
**.promote.notificationGenStartMaxTime =200s
**.promote.notificationGenInterval =7500s
**.promote.notificationGenDistribution =1
**.promote.notificationValidDuration = 472800s
**.promote.dataPayloadSizeInBytes = 9974
**.promote.dataPacketSizeInBytes = 9974
**.promote.usedRNG = 3
**.promote.destinationOriented=true



# forwarding layer parameters
**.forwardingLayer = "KSpraywaitRoutingLayer"
**.maximumCacheSize = 100000000byte # 1 GB cache=1000000000byte
**.destinationOrientedData = true
**.spraywaitFlavour="binary"    #binary,vanila and source are the value
**.disableExcesslog=true
**.antiEntropyInterval = 300s
**.maximumHopCount = 100
**.noDuplicate=200



# wireless interface parameters
**.wirelessIfc.wirelessRange = 30m
**.wirelessIfc.neighbourScanInterval = 1s
**.wirelessIfc.bandwidthBitRate = 100000bps     # 100 Kbps
**.wirelessIfc.wirelessHeaderSize = 16byte      # BT header
**.wirelessIfc.logging = 0




# # INET mobility parameters (BonnMotion)
# **.mobilityType = "BonnMotionMobility"
# **.mobility.traceFile = "50_traces.gpx.movements"
# **.mobility.nodeId = -1  #means "host module's index"


# INET mobility parameters (RandomWPMobility)
#**.constraintAreaMinX = 0m
#**.constraintAreaMinY = 0m
#**.constraintAreaMinZ = 0m
#**.constraintAreaMaxX = 45000m  # from paper on SFO taxi trace
#**.constraintAreaMaxY = 45000m  # from paper on SFO taxi trace
#**.constraintAreaMaxZ = 0m
#**.updateInterval = 0.1s # test with 0s too, and let getCurrentPosition update the display string from a test module
#**.mobility.initFromDisplayString = false
#**.mobilityType = "RandomWPMobility"
#**.mobility.initFromDisplayString = false
#**.mobility.speed = 43810mps # from paper on SFO taxi trace
#**.mobility.waitTime = 300s



# # INET mobility parameters (SWIM)
**.constraintAreaMinX = 0m
**.constraintAreaMinY = 0m
**.constraintAreaMinZ = 0m
**.constraintAreaMaxX = 1000m
**.constraintAreaMaxY = 1000m
**.constraintAreaMaxZ = 0m
**.updateInterval = 0.1s
**.mobility.initFromDisplayString = false
**.mobilityType = "SWIMMobility"
**.mobility.noOfLocations = 200
**.mobility.Hosts = 500
**.mobility.popularityDecisionThreshold = 7
**.mobility.returnHomePercentage = 15
**.mobility.neighbourLocationLimit = 200m
**.mobility.speed = 1.5mps
**.mobility.radius = 200m
**.mobility.alpha = 0.5
**.mobility.waitTime = 21600s
**.mobility.usedRNG = 2
